Version 4
SHEET 1 880 680
WIRE -64 64 -144 64
WIRE 64 64 -64 64
WIRE -64 112 -64 64
WIRE 64 112 64 64
WIRE 96 112 64 112
WIRE 352 112 288 112
WIRE 96 240 64 240
WIRE 352 240 288 240
WIRE -48 320 -96 320
WIRE 64 320 64 240
WIRE 64 320 -48 320
WIRE -48 352 -48 320
FLAG -64 192 0
FLAG -48 432 0
FLAG -64 64 5MHz
FLAG -96 320 10MHz
SYMBOL PD2 192 176 R0
SYMATTR InstName X1
SYMBOL voltage -64 96 R0
WINDOW 3 -463 6 Left 2
WINDOW 123 0 0 Left 0
WINDOW 39 0 0 Left 0
WINDOW 0 47 57 Left 2
SYMATTR Value PULSE(0 1.8 10p 10p 10p 100n 200n)
SYMATTR InstName V1
SYMBOL voltage -48 336 R0
WINDOW 3 -458 28 Left 2
WINDOW 123 0 0 Left 0
WINDOW 39 0 0 Left 0
WINDOW 0 45 60 Left 2
SYMATTR Value PULSE(0 1.8 20n 10p 10p 50n 100n)
SYMATTR InstName V2
TEXT 448 440 Left 2 !.tran 5u
TEXT 392 384 Left 2 !.ic V(vin_vco) = 0
