Version 4
SHEET 1 1892 784
WIRE -496 16 -576 16
WIRE -112 16 -496 16
WIRE -496 64 -496 16
WIRE -112 64 -112 16
WIRE -112 64 -128 64
WIRE -48 64 -112 64
WIRE 368 64 144 64
WIRE 640 112 592 112
WIRE 640 128 640 112
WIRE 704 128 640 128
WIRE 816 128 704 128
WIRE 960 128 816 128
WIRE 1312 128 1248 128
WIRE 1424 128 1312 128
WIRE 1648 128 1520 128
WIRE 1888 128 1744 128
WIRE -48 192 -80 192
WIRE 368 192 144 192
WIRE -480 272 -528 272
WIRE 704 288 704 192
WIRE 816 288 816 272
WIRE 816 288 704 288
WIRE -480 304 -480 272
WIRE 816 320 816 288
WIRE -80 448 -80 192
WIRE 832 448 -80 448
WIRE 1312 448 1312 128
WIRE 1312 448 1008 448
FLAG -128 64 f_in
IOPIN -128 64 In
FLAG -496 144 0
FLAG -480 384 0
FLAG -496 16 5MHz
FLAG -528 272 10MHz
FLAG 816 320 0
SYMBOL PD2 48 128 R0
SYMATTR InstName X1
SYMBOL CP 480 128 R0
SYMATTR InstName X2
SYMBOL VCO 1104 128 R0
SYMATTR InstName X3
SYMBOL voltage -496 48 R0
WINDOW 3 -463 6 Left 2
WINDOW 123 0 0 Left 0
WINDOW 39 0 0 Left 0
WINDOW 0 47 57 Left 2
SYMATTR Value PULSE(0 1.8 10p 10p 10p 100n 200n)
SYMATTR InstName V1
SYMBOL voltage -480 288 R0
WINDOW 3 -458 28 Left 2
WINDOW 123 0 0 Left 0
WINDOW 39 0 0 Left 0
WINDOW 0 45 60 Left 2
SYMATTR Value PULSE(0 1.8 10p 10p 10p 50n 100n)
SYMATTR InstName V2
SYMBOL inverter 1424 128 R0
SYMATTR InstName X6
SYMBOL inverter 1648 128 R0
SYMATTR InstName X7
SYMBOL cap 688 128 R0
SYMATTR InstName C1
SYMATTR Value 200p
SYMBOL cap 800 208 R0
SYMATTR InstName C2
SYMATTR Value 500p
SYMBOL res 800 112 R0
SYMATTR InstName R1
SYMATTR Value 500
SYMBOL f_div 912 448 R0
SYMATTR InstName X8
TEXT 32 768 Left 2 !.tran 5u
TEXT -24 712 Left 2 !.ic V(vin_vco) = 0
