Version 4
SHEET 1 880 680
WIRE 160 64 160 16
WIRE 192 64 160 64
WIRE 192 112 192 64
WIRE 192 112 160 112
WIRE 112 144 64 144
WIRE 64 192 64 144
WIRE 64 192 -48 192
WIRE 160 192 160 160
WIRE 304 192 160 192
WIRE 160 224 160 192
WIRE -304 272 -304 192
WIRE 192 272 160 272
WIRE 64 304 64 192
WIRE 112 304 64 304
WIRE 192 320 192 272
WIRE 192 320 160 320
WIRE 160 352 160 320
WIRE -304 432 -304 352
FLAG 160 16 VDD
FLAG 160 352 0
FLAG -48 192 in
IOPIN -48 192 In
FLAG 304 192 out
IOPIN 304 192 Out
FLAG -304 432 0
FLAG -304 192 VDD
SYMBOL cmosp 112 64 R0
SYMATTR InstName M1
SYMATTR Value2 l=180n w=360n
SYMBOL cmosn 112 224 R0
SYMATTR InstName M2
SYMATTR Value2 l=180n w=180n
SYMBOL voltage -304 256 R0
WINDOW 123 0 0 Left 0
WINDOW 39 0 0 Left 0
SYMATTR InstName V1
SYMATTR Value 1.8
TEXT 448 120 Left 2 !.INCLUDE tsmc018.lib
