Version 4
SHEET 1 2444 1400
WIRE 1440 -32 160 -32
WIRE 160 32 160 -32
WIRE 192 32 160 32
WIRE 368 64 336 64
WIRE 432 64 368 64
WIRE 928 64 528 64
WIRE 1216 64 1024 64
WIRE -16 96 -128 96
WIRE 192 96 80 96
WIRE 1216 96 1088 96
WIRE 1440 96 1440 -32
WIRE 1440 96 1360 96
WIRE 1520 96 1440 96
WIRE 1696 96 1616 96
WIRE 1216 128 1168 128
WIRE 368 160 368 64
WIRE 368 160 160 160
WIRE 608 160 368 160
WIRE -512 192 -512 32
WIRE -512 288 -512 272
WIRE 160 288 160 160
WIRE 192 288 160 288
WIRE 368 320 336 320
WIRE 544 320 368 320
WIRE 1088 320 1088 96
WIRE 1088 320 544 320
WIRE 192 352 144 352
WIRE 368 416 368 320
WIRE 368 416 160 416
WIRE 144 448 144 352
WIRE 368 448 144 448
WIRE 160 464 160 416
WIRE 160 464 144 464
WIRE 144 496 144 464
WIRE 192 496 144 496
WIRE 368 528 368 448
WIRE 368 528 336 528
WIRE 192 560 144 560
WIRE 608 624 608 160
WIRE 624 624 608 624
WIRE 544 656 544 320
WIRE 624 656 544 656
WIRE 144 672 144 560
WIRE 480 672 144 672
WIRE 1168 672 1168 128
WIRE 1168 672 768 672
WIRE 624 688 544 688
WIRE 624 720 608 720
WIRE 144 784 144 672
WIRE 192 784 144 784
WIRE 368 816 336 816
WIRE 192 848 160 848
WIRE 160 896 160 848
WIRE 176 896 160 896
WIRE 368 912 368 816
WIRE 368 912 160 912
WIRE 480 912 480 672
WIRE 1168 912 1168 672
WIRE 1168 912 480 912
WIRE 176 944 176 896
WIRE 368 944 176 944
WIRE 160 992 160 912
WIRE 192 992 160 992
WIRE 368 1024 368 944
WIRE 368 1024 336 1024
WIRE 544 1024 544 688
WIRE 544 1024 368 1024
WIRE 1088 1024 544 1024
WIRE 192 1056 160 1056
WIRE -480 1088 -480 800
WIRE 160 1184 160 1056
WIRE 368 1184 160 1184
WIRE 608 1184 608 720
WIRE 608 1184 368 1184
WIRE 1168 1216 1168 912
WIRE 1232 1216 1168 1216
WIRE -96 1248 -96 800
WIRE -96 1248 -128 1248
WIRE -32 1248 -96 1248
WIRE 192 1248 64 1248
WIRE 1088 1248 1088 1024
WIRE 1232 1248 1088 1248
WIRE 1440 1248 1376 1248
WIRE 1552 1248 1440 1248
WIRE 1728 1248 1648 1248
WIRE 368 1280 368 1184
WIRE 368 1280 336 1280
WIRE 432 1280 368 1280
WIRE 928 1280 528 1280
WIRE 1232 1280 1024 1280
WIRE 192 1312 160 1312
WIRE 160 1376 160 1312
WIRE 1440 1376 1440 1248
WIRE 1440 1376 160 1376
FLAG -128 96 f_ref
IOPIN -128 96 In
FLAG -128 1248 f_vco
IOPIN -128 1248 In
FLAG 1696 96 up
IOPIN 1696 96 Out
FLAG 1728 1248 down
IOPIN 1728 1248 Out
FLAG -512 288 0
FLAG -480 1168 0
SYMBOL nand2 224 64 R0
SYMATTR InstName X1
SYMBOL nand2 224 320 R0
SYMATTR InstName X2
SYMBOL nand2 224 528 R0
SYMATTR InstName X3
SYMBOL nand2 224 816 R0
SYMATTR InstName X4
SYMBOL nand2 224 1024 R0
SYMATTR InstName X5
SYMBOL nand2 224 1280 R0
SYMATTR InstName X6
SYMBOL inverter -16 96 R0
SYMATTR InstName X7
SYMBOL inverter -32 1248 R0
SYMATTR InstName X8
SYMBOL nand4 656 672 R0
SYMATTR InstName X9
SYMBOL inverter 432 1280 R0
SYMATTR InstName X10
SYMBOL inverter 928 1280 R0
SYMATTR InstName X11
SYMBOL inverter 432 64 R0
SYMATTR InstName X12
SYMBOL inverter 928 64 R0
SYMATTR InstName X13
SYMBOL nand3 1248 96 R0
SYMATTR InstName X14
SYMBOL nand3 1264 1248 R0
SYMATTR InstName X15
SYMBOL inverter 1520 96 R0
SYMATTR InstName X16
SYMBOL inverter 1552 1248 R0
SYMATTR InstName X17
SYMBOL voltage -512 176 R0
WINDOW 3 -226 191 Left 2
WINDOW 123 0 0 Left 0
WINDOW 39 0 0 Left 0
SYMATTR Value pulse 0 1 0 100p 100p 5n 10n
SYMATTR InstName V1
SYMBOL voltage -480 1072 R0
WINDOW 3 -232 131 Left 2
WINDOW 123 0 0 Left 0
WINDOW 39 0 0 Left 0
SYMATTR Value pulse 0 1 2n 100p 100p 5n 9n
SYMATTR InstName V2
TEXT 768 656 Left 2 ;Reset
TEXT 2184 304 Left 2 !.INCLUDE tsmc018.lib
TEXT -740 1382 Left 2 !.tran 50n
