Version 4
SHEET 1 892 680
WIRE 128 -32 64 -32
WIRE 224 -32 208 -32
WIRE 400 -32 224 -32
WIRE 64 -16 64 -32
WIRE 160 32 112 32
WIRE 224 32 224 -32
WIRE 224 32 160 32
WIRE 400 32 400 -32
WIRE 400 32 320 32
WIRE 464 32 400 32
WIRE 160 48 160 32
WIRE 112 64 112 32
WIRE 128 64 112 64
WIRE 240 64 192 64
WIRE 320 80 320 32
WIRE 336 80 320 80
WIRE 464 80 464 32
WIRE 464 80 448 80
WIRE 128 112 -16 112
WIRE -16 128 -16 112
WIRE 336 128 336 80
WIRE 336 128 320 128
WIRE 448 128 448 80
WIRE 464 128 448 128
WIRE 240 160 240 64
WIRE 272 160 240 160
WIRE 320 192 320 176
WIRE 384 192 320 192
WIRE 464 192 464 176
WIRE 464 192 384 192
WIRE 160 224 160 144
WIRE 384 224 384 192
WIRE 384 224 160 224
WIRE -16 240 -16 208
WIRE 384 240 384 224
WIRE 160 256 160 224
WIRE 208 256 160 256
WIRE 400 288 384 288
WIRE 160 320 112 320
WIRE 224 320 224 32
WIRE 224 320 160 320
WIRE 240 320 240 160
WIRE 336 320 240 320
WIRE 160 336 160 320
WIRE 112 352 112 320
WIRE 128 352 112 352
WIRE 240 352 192 352
WIRE 512 352 512 96
WIRE 512 352 240 352
WIRE 384 368 384 336
WIRE 128 400 -16 400
WIRE -16 416 -16 400
WIRE 400 416 400 288
WIRE 400 416 384 416
WIRE 160 448 160 432
WIRE 208 448 208 256
WIRE 208 448 160 448
WIRE 240 448 240 352
WIRE 336 448 240 448
WIRE 400 464 400 416
WIRE 400 464 384 464
WIRE -16 528 -16 496
WIRE 384 528 384 464
FLAG -16 240 0
FLAG -16 528 0
FLAG 384 528 0
FLAG 64 -16 0
SYMBOL d_ff 144 96 R0
SYMATTR InstName X1
SYMBOL d_ff 144 384 R0
SYMATTR InstName X2
SYMBOL cmosn 336 240 R0
SYMATTR InstName M1
SYMATTR Value2 l=180n w=1u
SYMBOL cmosn 336 368 R0
SYMATTR InstName M2
SYMATTR Value2 l=180n w=1u
SYMBOL cmosp 272 80 R0
SYMATTR InstName M3
SYMATTR Value2 l=180n w=1u
SYMBOL cmosp 512 176 R180
SYMATTR InstName M4
SYMATTR Value2 l=180n w=1u
SYMBOL voltage 224 -32 R90
WINDOW 0 -32 56 VBottom 2
WINDOW 3 32 56 VTop 2
WINDOW 123 0 0 Left 0
WINDOW 39 0 0 Left 0
SYMATTR InstName V1
SYMATTR Value 1.8
SYMBOL voltage -16 112 R0
WINDOW 3 -193 93 Left 0
WINDOW 123 0 0 Left 0
WINDOW 39 0 0 Left 0
SYMATTR InstName V2
SYMATTR Value PULSE(0 1.8 100p 10p 10p 10u 20u)
SYMBOL voltage -16 400 R0
WINDOW 3 -193 93 Left 0
WINDOW 123 0 0 Left 0
WINDOW 39 0 0 Left 0
SYMATTR InstName V3
SYMATTR Value PULSE(0 1.8 3u 10p 10p 10u 20u)
TEXT 480 -216 Left 2 !.INCLUDE tsmc018.lib
TEXT 768 256 Left 2 !.tran 100u
